2
Coordinates from ORCA-job hydrogen-molecule E  -1.163259283290
  H       2.323610     -0.245190     -0.016510
  H       2.750930     -0.460810     -0.538210
2
Coordinates from ORCA-job hydrogen-molecule E  -1.163498798826
  H       2.308979     -0.237807      0.001352
  H       2.765561     -0.468193     -0.556072
2
Coordinates from ORCA-job hydrogen-molecule E  -1.163887426899
  H       2.315051     -0.240871     -0.006060
  H       2.759489     -0.465129     -0.548660
2
Coordinates from ORCA-job hydrogen-molecule E  -1.163890321524
  H       2.315650     -0.241174     -0.006792
  H       2.758890     -0.464826     -0.547928
2
Coordinates from ORCA-job hydrogen-molecule E  -1.163890336336
  H       2.315610     -0.241153     -0.006744
  H       2.758930     -0.464847     -0.547976
