6
Coordinates from ORCA-job ethene E -77.621209830182
  C       1.027290      0.056590     -0.081630
  C       2.356250      0.056590     -0.081630
  H       0.482390      0.591230     -0.852860
  H       0.482390     -0.478050      0.689600
  H       2.901140      0.591230     -0.852860
  H       2.901140     -0.478050      0.689600
6
Coordinates from ORCA-job ethene E -77.622943354115
  C       1.019878      0.056590     -0.081630
  C       2.363659      0.056590     -0.081630
  H       0.452492      0.596861     -0.860983
  H       0.452492     -0.483681      0.697723
  H       2.931040      0.596863     -0.860986
  H       2.931040     -0.483683      0.697726
6
Coordinates from ORCA-job ethene E -77.623146121257
  C       1.019438      0.056590     -0.081630
  C       2.364099      0.056590     -0.081630
  H       0.443964      0.593564     -0.856227
  H       0.443964     -0.480384      0.692967
  H       2.939567      0.593563     -0.856225
  H       2.939567     -0.480383      0.692965
6
Coordinates from ORCA-job ethene E -77.623233795836
  C       1.020681      0.056590     -0.081630
  C       2.362851      0.056590     -0.081630
  H       0.436144      0.589826     -0.850835
  H       0.436144     -0.476646      0.687575
  H       2.947390      0.589828     -0.850838
  H       2.947390     -0.476648      0.687578
6
Coordinates from ORCA-job ethene E -77.623234350754
  C       1.020978      0.056590     -0.081630
  C       2.362555      0.056590     -0.081630
  H       0.436293      0.589780     -0.850768
  H       0.436293     -0.476600      0.687508
  H       2.947240      0.589780     -0.850768
  H       2.947240     -0.476600      0.687508
