2
Coordinates from ORCA-job hydrogen-molecule-RHF E  -1.131996950242
  H       1.080680     -0.045120     -0.060800
  H       1.788680     -0.045120     -0.060800
2
Coordinates from ORCA-job hydrogen-molecule-RHF E  -1.132399044659
  H       1.059544     -0.045120     -0.060800
  H       1.809816     -0.045120     -0.060800
2
Coordinates from ORCA-job hydrogen-molecule-RHF E  -1.132557668117
  H       1.066470     -0.045120     -0.060800
  H       1.802890     -0.045120     -0.060800
2
Coordinates from ORCA-job hydrogen-molecule-RHF E  -1.132558840318
  H       1.067141     -0.045120     -0.060800
  H       1.802219     -0.045120     -0.060800
2
Coordinates from ORCA-job hydrogen-molecule-RHF E  -1.132558843016
  H       1.067110     -0.045120     -0.060800
  H       1.802250     -0.045120     -0.060800
