3
Coordinates from ORCA-job water-moleculeMP2 E -76.160602653600
  O       0.896890      0.002540     -0.037730
  H       0.607530      0.658450      0.645390
  H       1.886220      0.032220     -0.006820
3
Coordinates from ORCA-job water-moleculeMP2 E -76.162227941743
  O       0.900054      0.005636     -0.034505
  H       0.632776      0.643764      0.630094
  H       1.857810      0.043810      0.005251
3
Coordinates from ORCA-job water-moleculeMP2 E -76.162247713344
  O       0.898919      0.004525     -0.035663
  H       0.632024      0.644966      0.631346
  H       1.859698      0.043719      0.005156
3
Coordinates from ORCA-job water-moleculeMP2 E -76.162249421582
  O       0.898478      0.004093     -0.036112
  H       0.632923      0.644849      0.631225
  H       1.859239      0.044268      0.005728
3
Coordinates from ORCA-job water-moleculeMP2 E -76.162249801338
  O       0.898174      0.003795     -0.036423
  H       0.633603      0.644739      0.631111
  H       1.858863      0.044675      0.006152
3
Coordinates from ORCA-job water-moleculeMP2 E -76.162249802353
  O       0.898175      0.003796     -0.036421
  H       0.633602      0.644739      0.631110
  H       1.858863      0.044674      0.006151
