3
Coordinates from ORCA-job water-molecule-hola E -75.320562202268
  O       0.896890      0.002540     -0.037730
  H       0.607530      0.658450      0.645390
  H       1.886220      0.032220     -0.006820
3
Coordinates from ORCA-job water-molecule-hola E -75.326358713158
  O       0.870465     -0.023343     -0.064687
  H       0.618047      0.672712      0.660244
  H       1.902129      0.043841      0.005283
3
Coordinates from ORCA-job water-molecule-hola E -75.326639400296
  O       0.862649     -0.030993     -0.072654
  H       0.633477      0.670892      0.658348
  H       1.894514      0.053311      0.015146
3
Coordinates from ORCA-job water-molecule-hola E -75.326639842638
  O       0.862871     -0.030780     -0.072433
  H       0.632816      0.671057      0.658520
  H       1.894953      0.052933      0.014753
3
Coordinates from ORCA-job water-molecule-hola E -75.326639844050
  O       0.862861     -0.030790     -0.072443
  H       0.632811      0.671067      0.658530
  H       1.894968      0.052933      0.014752
