3
Coordinates from ORCA-job water-molecule E -76.360182863985
  O       0.896890      0.002540     -0.037730
  H       0.607530      0.658450      0.645390
  H       1.886220      0.032220     -0.006820
3
Coordinates from ORCA-job water-molecule E -76.360750629672
  O       0.896931      0.002578     -0.037691
  H       0.624519      0.650101      0.636695
  H       1.869190      0.040531      0.001836
3
Coordinates from ORCA-job water-molecule E -76.360765196752
  O       0.895638      0.001310     -0.039011
  H       0.626593      0.650036      0.636627
  H       1.868409      0.041864      0.003224
3
Coordinates from ORCA-job water-molecule E -76.360769981613
  O       0.894355      0.000054     -0.040319
  H       0.628657      0.649968      0.636556
  H       1.867628      0.043188      0.004603
3
Coordinates from ORCA-job water-molecule E -76.360769981911
  O       0.894363      0.000061     -0.040312
  H       0.628636      0.649973      0.636561
  H       1.867641      0.043176      0.004591
